Version 4
SHEET 1 1036 680
WIRE 288 224 208 224
WIRE 400 224 368 224
WIRE 560 224 480 224
WIRE 208 256 208 224
WIRE 560 256 560 224
WIRE 560 256 512 256
WIRE 592 256 560 256
WIRE 592 272 592 256
WIRE 512 288 512 256
WIRE 512 384 512 368
WIRE 560 384 512 384
WIRE 592 384 592 336
WIRE 592 384 560 384
WIRE 208 416 208 336
WIRE 560 416 560 384
FLAG 560 416 0
FLAG 208 416 0
SYMBOL cap 576 272 R0
SYMATTR InstName C1
SYMATTR Value 1.161141e-12
SYMBOL ind 384 240 R270
WINDOW 0 32 56 VTop 2
WINDOW 3 5 56 VBottom 2
SYMATTR InstName L1
SYMATTR Value 4.202491e-07
SYMBOL res 384 208 R90
WINDOW 0 0 56 VBottom 2
WINDOW 3 32 56 VTop 2
SYMATTR InstName R1
SYMATTR Value 0.0928m
SYMBOL voltage 208 240 R0
SYMATTR InstName V1
SYMATTR Value 0
SYMATTR Value2 AC 1 0
SYMATTR SpiceLine Rser=0 Cpar=0
SYMBOL res 496 272 R0
SYMATTR InstName R2
SYMATTR Value 1.1m
TEXT 304 552 Left 2 !.ac dec 1000 150k 30Meg
